Version 4
SHEET 1 1380 680
WIRE 528 -176 368 -176
WIRE 368 -96 368 -176
WIRE 416 -96 368 -96
WIRE 528 -80 528 -176
WIRE 528 -80 480 -80
WIRE 576 -80 528 -80
WIRE 720 -80 656 -80
WIRE 864 -80 800 -80
WIRE 976 -80 864 -80
WIRE 1088 -80 976 -80
WIRE 1184 -80 1088 -80
WIRE 176 -64 64 -64
WIRE 304 -64 256 -64
WIRE 416 -64 304 -64
WIRE 304 -48 304 -64
WIRE 64 16 64 -64
WIRE 864 16 864 -80
WIRE 976 16 976 -80
WIRE 1088 16 1088 -80
WIRE 304 32 304 16
WIRE 64 224 64 96
WIRE 304 224 304 192
WIRE 304 224 64 224
WIRE 864 224 864 80
WIRE 864 224 304 224
WIRE 976 224 976 96
WIRE 976 224 864 224
WIRE 1088 224 1088 96
WIRE 1088 224 976 224
FLAG 64 224 0
FLAG -64 16 50V
FLAG -160 16 -50V
FLAG -160 96 0
FLAG -64 96 0
FLAG 448 -112 50V
FLAG 448 -48 -50V
SYMBOL voltage 64 0 R0
WINDOW 123 24 124 Left 2
WINDOW 39 0 0 Left 0
SYMATTR Value2 AC 1
SYMATTR InstName V1
SYMATTR Value ""
SYMBOL res 672 -96 R90
WINDOW 0 0 56 VBottom 2
WINDOW 3 32 56 VTop 2
SYMATTR InstName R1
SYMATTR Value 3.4
SYMBOL ind 704 -64 R270
WINDOW 0 32 56 VTop 2
WINDOW 3 5 56 VBottom 2
SYMATTR InstName L1
SYMATTR Value 49.2m
SYMBOL cap 848 16 R0
SYMATTR InstName C1
SYMATTR Value 388.7µ
SYMBOL ind 960 0 R0
SYMATTR InstName L2
SYMATTR Value 11.8m
SYMBOL res 1072 0 R0
SYMATTR InstName R2
SYMATTR Value 27.1
SYMBOL res 272 -80 R90
WINDOW 0 0 56 VBottom 2
WINDOW 3 32 56 VTop 2
SYMATTR InstName R3
SYMATTR Value 1k
SYMBOL cap 288 -48 R0
SYMATTR InstName C2
SYMATTR Value 1.61µ
SYMBOL ind 288 16 R0
SYMATTR InstName L3
SYMATTR Value 2.35
SYMBOL res 288 96 R0
SYMATTR InstName R4
SYMATTR Value 262
SYMBOL Opamps\\UniversalOpamp2 448 -80 R0
SYMATTR InstName U1
SYMBOL voltage -64 0 R0
WINDOW 123 0 0 Left 0
WINDOW 39 0 0 Left 0
SYMATTR InstName V2
SYMATTR Value 50V
SYMBOL voltage -160 0 R0
WINDOW 123 0 0 Left 0
WINDOW 39 0 0 Left 0
SYMATTR InstName V3
SYMATTR Value 50V
TEXT -48 -168 Left 2 !.ac dec 10000 1 1000
