Version 4
SHEET 1 880 680
WIRE -880 -256 -1008 -256
WIRE -704 -256 -816 -256
WIRE -1008 -176 -1008 -256
WIRE -768 -176 -928 -176
WIRE -768 -160 -768 -176
WIRE -704 -160 -704 -256
WIRE -1232 -80 -1248 -80
WIRE -1136 -80 -1152 -80
WIRE -1024 -80 -1072 -80
WIRE -1008 -80 -1008 -176
WIRE -864 -80 -928 -80
WIRE -784 -80 -864 -80
WIRE -704 -80 -704 -160
WIRE -1248 -48 -1248 -80
WIRE -1248 -48 -1552 -48
WIRE -960 -32 -1360 -32
WIRE -640 -16 -656 -16
WIRE -352 -16 -560 -16
WIRE -240 -16 -352 -16
WIRE -128 -16 -240 -16
WIRE 0 -16 -128 -16
WIRE -1360 0 -1360 -32
WIRE -960 0 -960 -32
WIRE -1248 16 -1248 -48
WIRE -1152 16 -1168 16
WIRE -1136 16 -1152 16
WIRE -1024 16 -1024 -80
WIRE -1024 16 -1056 16
WIRE -1008 16 -1008 -80
WIRE -1008 16 -1024 16
WIRE -992 16 -1008 16
WIRE -1552 32 -1552 -48
WIRE -704 32 -704 -80
WIRE -704 32 -928 32
WIRE -656 32 -656 -16
WIRE -656 32 -704 32
WIRE -352 32 -352 -16
WIRE -240 32 -240 -16
WIRE -128 32 -128 -16
WIRE -992 48 -1008 48
WIRE -1360 112 -1360 80
WIRE -960 112 -960 64
WIRE -960 112 -1360 112
WIRE -1552 160 -1552 112
WIRE -1152 160 -1152 80
WIRE -1152 160 -1552 160
WIRE -1008 160 -1008 48
WIRE -1008 160 -1152 160
WIRE -352 160 -352 96
WIRE -352 160 -1008 160
WIRE -240 160 -240 112
WIRE -240 160 -352 160
WIRE -128 160 -128 112
WIRE -128 160 -240 160
WIRE -1552 192 -1552 160
FLAG -1552 192 0
SYMBOL res -544 -32 R90
WINDOW 0 0 56 VBottom 2
WINDOW 3 32 56 VTop 2
SYMATTR InstName R1
SYMATTR Value 3.5
SYMBOL cap -368 32 R0
SYMATTR InstName C1
SYMATTR Value 537µ
SYMBOL ind -256 16 R0
SYMATTR InstName L2
SYMATTR Value 36m
SYMBOL res -144 16 R0
SYMATTR InstName R2
SYMATTR Value 54
SYMBOL res -1152 0 R90
WINDOW 0 0 56 VBottom 2
WINDOW 3 32 56 VTop 2
SYMATTR InstName R3
SYMATTR Value 9.09k
SYMBOL res -1040 0 R90
WINDOW 0 0 56 VBottom 2
WINDOW 3 32 56 VTop 2
SYMATTR InstName R4
SYMATTR Value 9.09k
SYMBOL res -1136 -96 R90
WINDOW 0 0 56 VBottom 2
WINDOW 3 32 56 VTop 2
SYMATTR InstName R5
SYMATTR Value 5.62k
SYMBOL cap -1072 -96 R90
WINDOW 0 0 32 VBottom 2
WINDOW 3 32 32 VTop 2
SYMATTR InstName C2
SYMATTR Value 100n
SYMBOL Opamps\\UniversalOpamp2 -960 32 R0
SYMATTR InstName U1
SYMBOL res -912 -96 R90
WINDOW 0 0 56 VBottom 2
WINDOW 3 32 56 VTop 2
SYMATTR InstName R6
SYMATTR Value 75k
SYMBOL res -912 -192 R90
WINDOW 0 0 56 VBottom 2
WINDOW 3 32 56 VTop 2
SYMATTR InstName R7
SYMATTR Value 5.62k
SYMBOL cap -880 -80 R0
SYMATTR InstName C3
SYMATTR Value 120n
SYMBOL res -688 -96 R90
WINDOW 0 0 56 VBottom 2
WINDOW 3 32 56 VTop 2
SYMATTR InstName R8
SYMATTR Value 75k
SYMBOL cap -704 -176 R90
WINDOW 0 0 32 VBottom 2
WINDOW 3 32 32 VTop 2
SYMATTR InstName C4
SYMATTR Value 100n
SYMBOL cap -816 -272 R90
WINDOW 0 0 32 VBottom 2
WINDOW 3 32 32 VTop 2
SYMATTR InstName C5
SYMATTR Value 100n
SYMBOL cap -1168 16 R0
SYMATTR InstName C6
SYMATTR Value 1µ
SYMBOL voltage -1360 -16 R0
SYMATTR InstName V1
SYMATTR Value 100V
SYMBOL voltage -1552 16 R0
WINDOW 123 24 124 Left 2
WINDOW 39 0 0 Left 0
SYMATTR InstName V2
SYMATTR Value ""
SYMATTR Value2 AC 1
TEXT -544 200 Left 2 !.ac dec 10000 1 1000
