Version 4
SHEET 1 880 680
WIRE -496 -256 -528 -256
WIRE -112 -256 -128 -256
WIRE -608 -176 -608 -256
WIRE -560 -176 -608 -176
WIRE -432 -176 -432 -256
WIRE -432 -176 -480 -176
WIRE -208 -160 -208 -256
WIRE -176 -160 -208 -160
WIRE -48 -160 -48 -256
WIRE -48 -160 -96 -160
WIRE -736 -96 -816 -96
WIRE -608 -96 -608 -176
WIRE -608 -96 -656 -96
WIRE -560 -96 -608 -96
WIRE -432 -80 -432 -176
WIRE -432 -80 -496 -80
WIRE -336 -80 -352 -80
WIRE -320 -80 -336 -80
WIRE -208 -80 -208 -160
WIRE -208 -80 -240 -80
WIRE -176 -80 -208 -80
WIRE -560 -64 -576 -64
WIRE -48 -64 -48 -160
WIRE -48 -64 -112 -64
WIRE -32 -64 -48 -64
WIRE 176 -64 48 -64
WIRE 464 -64 256 -64
WIRE 576 -64 464 -64
WIRE 688 -64 576 -64
WIRE 816 -64 688 -64
WIRE -816 -48 -816 -96
WIRE -176 -48 -192 -48
WIRE 464 -16 464 -64
WIRE 576 -16 576 -64
WIRE 688 -16 688 -64
WIRE -336 0 -336 -80
WIRE -816 112 -816 32
WIRE -576 112 -576 -64
WIRE -576 112 -816 112
WIRE -336 112 -336 64
WIRE -336 112 -576 112
WIRE -192 112 -192 -48
WIRE -192 112 -336 112
WIRE 464 112 464 48
WIRE 464 112 -192 112
WIRE 576 112 576 64
WIRE 576 112 464 112
WIRE 688 112 688 64
WIRE 688 112 576 112
WIRE -816 176 -816 112
FLAG -816 176 0
SYMBOL voltage -816 -64 R0
WINDOW 123 24 124 Left 2
WINDOW 39 0 0 Left 0
SYMATTR Value2 AC 1
SYMATTR InstName V1
SYMATTR Value ""
SYMBOL res 272 -80 R90
WINDOW 0 0 56 VBottom 2
WINDOW 3 32 56 VTop 2
SYMATTR InstName R1
SYMATTR Value 3.5
SYMBOL cap 448 -16 R0
SYMATTR InstName C1
SYMATTR Value 537µ
SYMBOL ind 560 -32 R0
SYMATTR InstName L2
SYMATTR Value 36m
SYMBOL res 672 -32 R0
SYMATTR InstName R2
SYMATTR Value 54
SYMBOL res -640 -112 R90
WINDOW 0 0 56 VBottom 2
WINDOW 3 32 56 VTop 2
SYMATTR InstName R3
SYMATTR Value 10k
SYMBOL Opamps\\opamp -528 -144 R0
SYMATTR InstName U1
SYMBOL res -464 -192 R90
WINDOW 0 0 56 VBottom 2
WINDOW 3 32 56 VTop 2
SYMATTR InstName R4
SYMATTR Value 21.5k
SYMBOL cap -432 -272 R90
WINDOW 0 0 32 VBottom 2
WINDOW 3 32 32 VTop 2
SYMATTR InstName C2
SYMATTR Value 330n
SYMBOL res -512 -272 R90
WINDOW 0 0 56 VBottom 2
WINDOW 3 32 56 VTop 2
SYMATTR InstName R5
SYMATTR Value 10k
SYMBOL res -336 -96 R90
WINDOW 0 0 56 VBottom 2
WINDOW 3 32 56 VTop 2
SYMATTR InstName R6
SYMATTR Value 2.15k
SYMBOL res -224 -96 R90
WINDOW 0 0 56 VBottom 2
WINDOW 3 32 56 VTop 2
SYMATTR InstName R7
SYMATTR Value 2.15k
SYMBOL cap -352 0 R0
SYMATTR InstName C3
SYMATTR Value 330n
SYMBOL Opamps\\opamp -144 -128 R0
SYMATTR InstName U2
SYMBOL res -80 -176 R90
WINDOW 0 0 56 VBottom 2
WINDOW 3 32 56 VTop 2
SYMATTR InstName R8
SYMATTR Value 33.7k
SYMBOL res -112 -272 R90
WINDOW 0 0 56 VBottom 2
WINDOW 3 32 56 VTop 2
SYMATTR InstName R9
SYMATTR Value 10k
SYMBOL cap -48 -272 R90
WINDOW 0 0 32 VBottom 2
WINDOW 3 32 32 VTop 2
SYMATTR InstName C4
SYMATTR Value 570n
SYMBOL res 64 -80 R90
WINDOW 0 0 56 VBottom 2
WINDOW 3 32 56 VTop 2
SYMATTR InstName R10
SYMATTR Value 196
TEXT 272 152 Left 2 !.ac dec 10000 1 1000
TEXT 168 -280 Left 2 !.lib opamp.sub
