Version 4
SHEET 1 1284 1184
WIRE -704 224 -784 224
WIRE -576 224 -640 224
WIRE 32 224 -48 224
WIRE 160 224 96 224
WIRE -928 320 -960 320
WIRE -784 320 -784 224
WIRE -784 320 -848 320
WIRE -704 320 -784 320
WIRE -576 320 -576 224
WIRE -576 320 -640 320
WIRE -192 320 -224 320
WIRE -48 320 -48 224
WIRE -48 320 -112 320
WIRE 32 320 -48 320
WIRE 160 320 160 224
WIRE 160 320 96 320
WIRE -1136 368 -1168 368
WIRE -1040 368 -1072 368
WIRE -400 368 -432 368
WIRE -304 368 -336 368
WIRE 480 384 352 384
WIRE -960 416 -960 320
WIRE -928 416 -960 416
WIRE -784 416 -848 416
WIRE -704 416 -784 416
WIRE -576 416 -576 320
WIRE -576 416 -624 416
WIRE -224 416 -224 320
WIRE -192 416 -224 416
WIRE -48 416 -112 416
WIRE 32 416 -48 416
WIRE 160 416 160 320
WIRE 160 416 112 416
WIRE -1280 464 -1312 464
WIRE -1168 464 -1168 368
WIRE -1168 464 -1200 464
WIRE -1136 464 -1168 464
WIRE -1040 464 -1040 368
WIRE -1040 464 -1072 464
WIRE -784 464 -784 416
WIRE -688 464 -784 464
WIRE -576 464 -576 416
WIRE -544 464 -576 464
WIRE -432 464 -432 368
WIRE -432 464 -464 464
WIRE -400 464 -432 464
WIRE -304 464 -304 368
WIRE -304 464 -336 464
WIRE -48 464 -48 416
WIRE 48 464 -48 464
WIRE 352 464 352 384
WIRE 384 464 352 464
WIRE 480 480 480 384
WIRE 480 480 448 480
WIRE 528 480 480 480
WIRE 640 480 608 480
WIRE 752 480 720 480
WIRE 864 480 752 480
WIRE 976 480 864 480
WIRE 1104 480 976 480
WIRE -784 496 -784 464
WIRE -688 496 -688 464
WIRE -48 496 -48 464
WIRE 48 496 48 464
WIRE 160 496 160 416
WIRE 176 496 160 496
WIRE 304 496 256 496
WIRE 384 496 304 496
WIRE 752 512 752 480
WIRE 864 512 864 480
WIRE 976 512 976 480
WIRE -1312 560 -1312 464
WIRE -1312 560 -1424 560
WIRE -1280 560 -1312 560
WIRE -1168 560 -1200 560
WIRE -1136 560 -1168 560
WIRE -1040 560 -1040 464
WIRE -1040 560 -1056 560
WIRE -960 560 -960 416
WIRE -960 560 -1040 560
WIRE -928 560 -960 560
WIRE -576 560 -576 464
WIRE -544 560 -576 560
WIRE -432 560 -464 560
WIRE -400 560 -432 560
WIRE -304 560 -304 464
WIRE -304 560 -320 560
WIRE -224 560 -224 416
WIRE -224 560 -304 560
WIRE -192 560 -224 560
WIRE -576 576 -576 560
WIRE -576 576 -864 576
WIRE 160 576 160 496
WIRE 160 576 -128 576
WIRE -1424 592 -1424 560
WIRE -928 592 -960 592
WIRE -192 592 -224 592
WIRE -1168 608 -1168 560
WIRE -1168 608 -1216 608
WIRE -1120 608 -1168 608
WIRE -432 608 -432 560
WIRE -432 608 -480 608
WIRE -384 608 -432 608
WIRE -1216 624 -1216 608
WIRE -1120 624 -1120 608
WIRE -480 624 -480 608
WIRE -384 624 -384 608
WIRE 752 624 752 576
WIRE 864 624 864 592
WIRE 864 624 752 624
WIRE 976 624 976 592
WIRE 976 624 864 624
WIRE -1616 640 -1616 608
WIRE -1520 640 -1520 608
WIRE -1424 720 -1424 672
WIRE -1216 720 -1216 688
WIRE -1216 720 -1424 720
WIRE -1120 720 -1120 688
WIRE -1120 720 -1216 720
WIRE -960 720 -960 592
WIRE -960 720 -1120 720
WIRE -784 720 -784 560
WIRE -784 720 -960 720
WIRE -688 720 -688 560
WIRE -688 720 -784 720
WIRE -480 720 -480 688
WIRE -480 720 -688 720
WIRE -384 720 -384 688
WIRE -384 720 -480 720
WIRE -224 720 -224 592
WIRE -224 720 -384 720
WIRE -48 720 -48 560
WIRE -48 720 -224 720
WIRE 48 720 48 560
WIRE 48 720 -48 720
WIRE 304 720 48 720
WIRE 752 720 752 624
WIRE 752 720 304 720
WIRE -1616 768 -1616 720
WIRE -1520 768 -1520 720
FLAG -1424 720 0
FLAG -1520 608 50V
FLAG -1616 608 -50V
FLAG -1616 768 0
FLAG -1520 768 0
FLAG -896 544 50V
FLAG -896 608 -50V
FLAG 416 448 50V
FLAG 416 512 -50V
FLAG -160 544 50V
FLAG -160 608 -50V
SYMBOL res -1184 544 R90
WINDOW 0 0 56 VBottom 2
WINDOW 3 32 56 VTop 2
SYMATTR InstName R9
SYMATTR Value 84.5k
SYMBOL res -1040 544 R90
WINDOW 0 0 56 VBottom 2
WINDOW 3 32 56 VTop 2
SYMATTR InstName R10
SYMATTR Value 84.5k
SYMBOL res -1184 448 R90
WINDOW 0 0 56 VBottom 2
WINDOW 3 32 56 VTop 2
SYMATTR InstName R11
SYMATTR Value 2.15k
SYMBOL cap -1072 448 R90
WINDOW 0 0 32 VBottom 2
WINDOW 3 32 32 VTop 2
SYMATTR InstName C7
SYMATTR Value 0.68n
SYMBOL Opamps/UniversalOpamp2 -896 576 R0
SYMATTR InstName U3
SYMBOL cap -1232 624 R0
SYMATTR InstName C8
SYMATTR Value 27n
SYMBOL res -832 400 R90
WINDOW 0 0 56 VBottom 2
WINDOW 3 32 56 VTop 2
SYMATTR InstName R12
SYMATTR Value 1180k
SYMBOL cap -800 496 R0
SYMATTR InstName C9
SYMATTR Value 1.8n
SYMBOL res -608 400 R90
WINDOW 0 0 56 VBottom 2
WINDOW 3 32 56 VTop 2
SYMATTR InstName R13
SYMATTR Value 1180k
SYMBOL res -832 304 R90
WINDOW 0 0 56 VBottom 2
WINDOW 3 32 56 VTop 2
SYMATTR InstName R14
SYMATTR Value 2.15k
SYMBOL cap -640 304 R90
WINDOW 0 0 32 VBottom 2
WINDOW 3 32 32 VTop 2
SYMATTR InstName C10
SYMATTR Value 0.68n
SYMBOL cap 736 512 R0
SYMATTR InstName C12
SYMATTR Value 388.7µ
SYMBOL ind 848 496 R0
SYMATTR InstName L1
SYMATTR Value 11.8m
SYMBOL res 960 496 R0
SYMATTR InstName R15
SYMATTR Value 27.1
SYMBOL res 624 464 R90
WINDOW 0 0 56 VBottom 2
WINDOW 3 32 56 VTop 2
SYMATTR InstName R16
SYMATTR Value 3.4
SYMBOL voltage -1424 576 R0
WINDOW 123 24 38 Left 2
WINDOW 39 0 0 Left 0
SYMATTR Value2 AC 1
SYMATTR InstName V3
SYMATTR Value ""
SYMBOL voltage -1520 624 R0
SYMATTR InstName V1
SYMATTR Value 50V
SYMBOL voltage -1616 736 R180
WINDOW 0 24 96 Left 2
WINDOW 3 24 16 Left 2
SYMATTR InstName V2
SYMATTR Value 50V
SYMBOL cap -1136 624 R0
SYMATTR InstName C1
SYMATTR Value 1.2n
SYMBOL cap -1072 352 R90
WINDOW 0 0 32 VBottom 2
WINDOW 3 32 32 VTop 2
SYMATTR InstName C2
SYMATTR Value 22n
SYMBOL cap -640 208 R90
WINDOW 0 0 32 VBottom 2
WINDOW 3 32 32 VTop 2
SYMATTR InstName C3
SYMATTR Value 22n
SYMBOL cap -704 496 R0
SYMATTR InstName C4
SYMATTR Value 0.22n
SYMBOL ind 624 496 R270
WINDOW 0 32 56 VTop 2
WINDOW 3 5 56 VBottom 2
SYMATTR InstName L2
SYMATTR Value 49.2m
SYMBOL res 272 480 R90
WINDOW 0 0 56 VBottom 2
WINDOW 3 32 56 VTop 2
SYMATTR InstName R1
SYMATTR Value 1k
SYMBOL cap 288 496 R0
SYMATTR InstName C5
SYMATTR Value 1.61µ
SYMBOL ind 288 544 R0
SYMATTR InstName L3
SYMATTR Value 2.35
SYMBOL res 288 624 R0
SYMATTR InstName R2
SYMATTR Value 262
SYMBOL Opamps/UniversalOpamp2 416 480 R0
SYMATTR InstName U1
SYMBOL res -448 544 R90
WINDOW 0 0 56 VBottom 2
WINDOW 3 32 56 VTop 2
SYMATTR InstName R3
SYMATTR Value 1270k
SYMBOL res -304 544 R90
WINDOW 0 0 56 VBottom 2
WINDOW 3 32 56 VTop 2
SYMATTR InstName R4
SYMATTR Value 1270k
SYMBOL res -448 448 R90
WINDOW 0 0 56 VBottom 2
WINDOW 3 32 56 VTop 2
SYMATTR InstName R5
SYMATTR Value 523k
SYMBOL cap -336 448 R90
WINDOW 0 0 32 VBottom 2
WINDOW 3 32 32 VTop 2
SYMATTR InstName C6
SYMATTR Value 0.68n
SYMBOL Opamps/UniversalOpamp2 -160 576 R0
SYMATTR InstName U2
SYMBOL cap -496 624 R0
SYMATTR InstName C11
SYMATTR Value 22n
SYMBOL res -96 400 R90
WINDOW 0 0 56 VBottom 2
WINDOW 3 32 56 VTop 2
SYMATTR InstName R6
SYMATTR Value 86.6k
SYMBOL cap -64 496 R0
SYMATTR InstName C13
SYMATTR Value 330n
SYMBOL res 128 400 R90
WINDOW 0 0 56 VBottom 2
WINDOW 3 32 56 VTop 2
SYMATTR InstName R7
SYMATTR Value 86.6k
SYMBOL res -96 304 R90
WINDOW 0 0 56 VBottom 2
WINDOW 3 32 56 VTop 2
SYMATTR InstName R8
SYMATTR Value 523k
SYMBOL cap 96 304 R90
WINDOW 0 0 32 VBottom 2
WINDOW 3 32 32 VTop 2
SYMATTR InstName C14
SYMATTR Value 0.68n
SYMBOL cap -400 624 R0
SYMATTR InstName C15
SYMATTR Value 3.3n
SYMBOL cap -336 352 R90
WINDOW 0 0 32 VBottom 2
WINDOW 3 32 32 VTop 2
SYMATTR InstName C16
SYMATTR Value 22n
SYMBOL cap 96 208 R90
WINDOW 0 0 32 VBottom 2
WINDOW 3 32 32 VTop 2
SYMATTR InstName C17
SYMATTR Value 22n
SYMBOL cap 32 496 R0
SYMATTR InstName C18
SYMATTR Value 39n
TEXT -1664 528 Left 2 !.ac dec 10000 1 1000
